---------- Begin Simulation Statistics ----------
final_tick                                  751353000                       # Number of ticks from beginning of simulation (restored from checkpoints and never reset)
host_inst_rate                                1239996                       # Simulator instruction rate (inst/s)
host_mem_usage                                 648928                       # Number of bytes of host memory used
host_op_rate                                  2299775                       # Simulator op (including micro ops) rate (op/s)
host_seconds                                     0.25                       # Real time elapsed on the host
host_tick_rate                             1692050125                       # Simulator tick rate (ticks/s)
sim_freq                                 1000000000000                       # Frequency of simulated ticks
sim_insts                                      304080                       # Number of instructions simulated
sim_ops                                        564377                       # Number of ops (including micro ops) simulated
sim_seconds                                  0.000416                       # Number of seconds simulated
sim_ticks                                   415689000                       # Number of ticks simulated
system.cpu.Branches                             30868                       # Number of branches fetched
system.cpu.committedInsts                      180570                       # Number of instructions committed
system.cpu.committedOps                        326393                       # Number of ops (including micro ops) committed
system.cpu.dtb.rdAccesses                       52559                       # TLB accesses on read requests
system.cpu.dtb.rdMisses                             3                       # TLB misses on read requests
system.cpu.dtb.wrAccesses                       22992                       # TLB accesses on write requests
system.cpu.dtb.wrMisses                             0                       # TLB misses on write requests
system.cpu.idle_fraction                            0                       # Percentage of idle cycles
system.cpu.itb.rdAccesses                           0                       # TLB accesses on read requests
system.cpu.itb.rdMisses                             0                       # TLB misses on read requests
system.cpu.itb.wrAccesses                      247795                       # TLB accesses on write requests
system.cpu.itb.wrMisses                             1                       # TLB misses on write requests
system.cpu.not_idle_fraction                        1                       # Percentage of non-idle cycles
system.cpu.numCycles                           831378                       # number of cpu cycles simulated
system.cpu.numWorkItemsCompleted                    0                       # number of work items this cpu completed
system.cpu.numWorkItemsStarted                      0                       # number of work items this cpu started
system.cpu.num_busy_cycles                     831378                       # Number of busy cycles
system.cpu.num_cc_register_reads               155202                       # number of times the CC registers were read
system.cpu.num_cc_register_writes               96859                       # number of times the CC registers were written
system.cpu.num_conditional_control_insts        23402                       # number of instructions that are conditional controls
system.cpu.num_fp_alu_accesses                  32067                       # Number of float alu accesses
system.cpu.num_fp_insts                         32067                       # number of float instructions
system.cpu.num_fp_register_reads                24176                       # number of times the floating registers were read
system.cpu.num_fp_register_writes               27715                       # number of times the floating registers were written
system.cpu.num_func_calls                        4058                       # number of times a function call or return occured
system.cpu.num_idle_cycles                          0                       # Number of idle cycles
system.cpu.num_int_alu_accesses                305111                       # Number of integer alu accesses
system.cpu.num_int_insts                       305111                       # number of integer instructions
system.cpu.num_int_register_reads              601177                       # number of times the integer registers were read
system.cpu.num_int_register_writes             245816                       # number of times the integer registers were written
system.cpu.num_load_insts                       52494                       # Number of load instructions
system.cpu.num_mem_refs                         75486                       # number of memory refs
system.cpu.num_store_insts                      22992                       # Number of store instructions
system.cpu.num_vec_alu_accesses                     0                       # Number of vector alu accesses
system.cpu.num_vec_insts                            0                       # number of vector instructions
system.cpu.num_vec_register_reads                   0                       # number of times the vector registers were read
system.cpu.num_vec_register_writes                  0                       # number of times the vector registers were written
system.cpu.op_class::No_OpClass                   839      0.26%      0.26% # Class of executed instruction
system.cpu.op_class::IntAlu                    228272     69.94%     70.19% # Class of executed instruction
system.cpu.op_class::IntMult                      413      0.13%     70.32% # Class of executed instruction
system.cpu.op_class::IntDiv                       623      0.19%     70.51% # Class of executed instruction
system.cpu.op_class::FloatAdd                   12894      3.95%     74.46% # Class of executed instruction
system.cpu.op_class::FloatCmp                       0      0.00%     74.46% # Class of executed instruction
system.cpu.op_class::FloatCvt                       0      0.00%     74.46% # Class of executed instruction
system.cpu.op_class::FloatMult                      0      0.00%     74.46% # Class of executed instruction
system.cpu.op_class::FloatMultAcc                   0      0.00%     74.46% # Class of executed instruction
system.cpu.op_class::FloatDiv                       0      0.00%     74.46% # Class of executed instruction
system.cpu.op_class::FloatMisc                      0      0.00%     74.46% # Class of executed instruction
system.cpu.op_class::FloatSqrt                      0      0.00%     74.46% # Class of executed instruction
system.cpu.op_class::SimdAdd                        0      0.00%     74.46% # Class of executed instruction
system.cpu.op_class::SimdAddAcc                     0      0.00%     74.46% # Class of executed instruction
system.cpu.op_class::SimdAlu                     1266      0.39%     74.85% # Class of executed instruction
system.cpu.op_class::SimdCmp                        0      0.00%     74.85% # Class of executed instruction
system.cpu.op_class::SimdCvt                      644      0.20%     75.05% # Class of executed instruction
system.cpu.op_class::SimdMisc                    1604      0.49%     75.54% # Class of executed instruction
system.cpu.op_class::SimdMult                       0      0.00%     75.54% # Class of executed instruction
system.cpu.op_class::SimdMultAcc                    0      0.00%     75.54% # Class of executed instruction
system.cpu.op_class::SimdShift                      0      0.00%     75.54% # Class of executed instruction
system.cpu.op_class::SimdShiftAcc                   0      0.00%     75.54% # Class of executed instruction
system.cpu.op_class::SimdDiv                        0      0.00%     75.54% # Class of executed instruction
system.cpu.op_class::SimdSqrt                       0      0.00%     75.54% # Class of executed instruction
system.cpu.op_class::SimdFloatAdd                2080      0.64%     76.18% # Class of executed instruction
system.cpu.op_class::SimdFloatAlu                   0      0.00%     76.18% # Class of executed instruction
system.cpu.op_class::SimdFloatCmp                   0      0.00%     76.18% # Class of executed instruction
system.cpu.op_class::SimdFloatCvt                 224      0.07%     76.25% # Class of executed instruction
system.cpu.op_class::SimdFloatDiv                   0      0.00%     76.25% # Class of executed instruction
system.cpu.op_class::SimdFloatMisc                  0      0.00%     76.25% # Class of executed instruction
system.cpu.op_class::SimdFloatMult               2048      0.63%     76.87% # Class of executed instruction
system.cpu.op_class::SimdFloatMultAcc               0      0.00%     76.87% # Class of executed instruction
system.cpu.op_class::SimdFloatSqrt                  0      0.00%     76.87% # Class of executed instruction
system.cpu.op_class::SimdReduceAdd                  0      0.00%     76.87% # Class of executed instruction
system.cpu.op_class::SimdReduceAlu                  0      0.00%     76.87% # Class of executed instruction
system.cpu.op_class::SimdReduceCmp                  0      0.00%     76.87% # Class of executed instruction
system.cpu.op_class::SimdFloatReduceAdd             0      0.00%     76.87% # Class of executed instruction
system.cpu.op_class::SimdFloatReduceCmp             0      0.00%     76.87% # Class of executed instruction
system.cpu.op_class::SimdAes                        0      0.00%     76.87% # Class of executed instruction
system.cpu.op_class::SimdAesMix                     0      0.00%     76.87% # Class of executed instruction
system.cpu.op_class::SimdSha1Hash                   0      0.00%     76.87% # Class of executed instruction
system.cpu.op_class::SimdSha1Hash2                  0      0.00%     76.87% # Class of executed instruction
system.cpu.op_class::SimdSha256Hash                 0      0.00%     76.87% # Class of executed instruction
system.cpu.op_class::SimdSha256Hash2                0      0.00%     76.87% # Class of executed instruction
system.cpu.op_class::SimdShaSigma2                  0      0.00%     76.87% # Class of executed instruction
system.cpu.op_class::SimdShaSigma3                  0      0.00%     76.87% # Class of executed instruction
system.cpu.op_class::SimdPredAlu                    0      0.00%     76.87% # Class of executed instruction
system.cpu.op_class::MemRead                    45183     13.84%     90.72% # Class of executed instruction
system.cpu.op_class::MemWrite                   19508      5.98%     96.69% # Class of executed instruction
system.cpu.op_class::FloatMemRead                7311      2.24%     98.93% # Class of executed instruction
system.cpu.op_class::FloatMemWrite               3484      1.07%    100.00% # Class of executed instruction
system.cpu.op_class::IprAccess                      0      0.00%    100.00% # Class of executed instruction
system.cpu.op_class::InstPrefetch                   0      0.00%    100.00% # Class of executed instruction
system.cpu.op_class::total                     326393                       # Class of executed instruction
system.cpu.workload.numSyscalls                     4                       # Number of system calls
system.membus.snoop_filter.hit_multi_requests            1                       # Number of requests hitting in the snoop filter with multiple (>1) holders of the requested data.
system.membus.snoop_filter.hit_multi_snoops            0                       # Number of snoops hitting in the snoop filter with multiple (>1) holders of the requested data.
system.membus.snoop_filter.hit_single_requests         2409                       # Number of requests hitting in the snoop filter with a single holder of the requested data.
system.membus.snoop_filter.hit_single_snoops            0                       # Number of snoops hitting in the snoop filter with a single holder of the requested data.
system.membus.snoop_filter.tot_requests          4926                       # Total number of requests made to the snoop filter.
system.membus.snoop_filter.tot_snoops               0                       # Total number of snoops made to the snoop filter.
system.membus.pwrStateResidencyTicks::UNDEFINED    751353000                       # Cumulative time (in ticks) in various power states
system.membus.trans_dist::ReadResp               2515                       # Transaction distribution
system.membus.trans_dist::WritebackDirty            2                       # Transaction distribution
system.membus.trans_dist::WritebackClean         2383                       # Transaction distribution
system.membus.trans_dist::CleanEvict               25                       # Transaction distribution
system.membus.trans_dist::ReadExReq                 1                       # Transaction distribution
system.membus.trans_dist::ReadExResp                1                       # Transaction distribution
system.membus.trans_dist::ReadCleanReq           2383                       # Transaction distribution
system.membus.trans_dist::ReadSharedReq           132                       # Transaction distribution
system.membus.pkt_count_system.cpu.icache.mem_side::system.mem_ctrls.port         7149                       # Packet count per connected master and slave (bytes)
system.membus.pkt_count_system.cpu.icache.mem_side::total         7149                       # Packet count per connected master and slave (bytes)
system.membus.pkt_count_system.cpu.dcache.mem_side::system.mem_ctrls.port          293                       # Packet count per connected master and slave (bytes)
system.membus.pkt_count_system.cpu.dcache.mem_side::total          293                       # Packet count per connected master and slave (bytes)
system.membus.pkt_count::total                   7442                       # Packet count per connected master and slave (bytes)
system.membus.pkt_size_system.cpu.icache.mem_side::system.mem_ctrls.port       305024                       # Cumulative packet size per connected master and slave (bytes)
system.membus.pkt_size_system.cpu.icache.mem_side::total       305024                       # Cumulative packet size per connected master and slave (bytes)
system.membus.pkt_size_system.cpu.dcache.mem_side::system.mem_ctrls.port         8640                       # Cumulative packet size per connected master and slave (bytes)
system.membus.pkt_size_system.cpu.dcache.mem_side::total         8640                       # Cumulative packet size per connected master and slave (bytes)
system.membus.pkt_size::total                  313664                       # Cumulative packet size per connected master and slave (bytes)
system.membus.snoops                                0                       # Total snoops (count)
system.membus.snoopTraffic                          0                       # Total snoop traffic (bytes)
system.membus.snoop_fanout::samples              2516                       # Request fanout histogram
system.membus.snoop_fanout::mean                    0                       # Request fanout histogram
system.membus.snoop_fanout::stdev                   0                       # Request fanout histogram
system.membus.snoop_fanout::underflows              0      0.00%      0.00% # Request fanout histogram
system.membus.snoop_fanout::0                    2516    100.00%    100.00% # Request fanout histogram
system.membus.snoop_fanout::1                       0      0.00%    100.00% # Request fanout histogram
system.membus.snoop_fanout::2                       0      0.00%    100.00% # Request fanout histogram
system.membus.snoop_fanout::3                       0      0.00%    100.00% # Request fanout histogram
system.membus.snoop_fanout::4                       0      0.00%    100.00% # Request fanout histogram
system.membus.snoop_fanout::overflows               0      0.00%    100.00% # Request fanout histogram
system.membus.snoop_fanout::min_value               0                       # Request fanout histogram
system.membus.snoop_fanout::max_value               0                       # Request fanout histogram
system.membus.snoop_fanout::total                2516                       # Request fanout histogram
system.membus.reqLayer2.occupancy            14498000                       # Layer occupancy (ticks)
system.membus.reqLayer2.utilization               3.5                       # Layer utilization (%)
system.membus.respLayer1.occupancy           12126000                       # Layer occupancy (ticks)
system.membus.respLayer1.utilization              2.9                       # Layer utilization (%)
system.membus.respLayer2.occupancy             702750                       # Layer occupancy (ticks)
system.membus.respLayer2.utilization              0.2                       # Layer utilization (%)
system.voltage_domain.voltage                       1                       # Voltage in Volts
system.clk_domain.clock                          1000                       # Clock period in ticks
system.cpu_voltage_domain.voltage                   1                       # Voltage in Volts
system.mem_ctrls.pwrStateResidencyTicks::UNDEFINED    751353000                       # Cumulative time (in ticks) in various power states
system.mem_ctrls.bytes_read::.cpu.inst         152512                       # Number of bytes read from this memory
system.mem_ctrls.bytes_read::.cpu.data           8512                       # Number of bytes read from this memory
system.mem_ctrls.bytes_read::total             161024                       # Number of bytes read from this memory
system.mem_ctrls.bytes_inst_read::.cpu.inst       152512                       # Number of instructions bytes read from this memory
system.mem_ctrls.bytes_inst_read::total        152512                       # Number of instructions bytes read from this memory
system.mem_ctrls.bytes_written::.writebacks          128                       # Number of bytes written to this memory
system.mem_ctrls.bytes_written::total             128                       # Number of bytes written to this memory
system.mem_ctrls.num_reads::.cpu.inst            2383                       # Number of read requests responded to by this memory
system.mem_ctrls.num_reads::.cpu.data             133                       # Number of read requests responded to by this memory
system.mem_ctrls.num_reads::total                2516                       # Number of read requests responded to by this memory
system.mem_ctrls.num_writes::.writebacks            2                       # Number of write requests responded to by this memory
system.mem_ctrls.num_writes::total                  2                       # Number of write requests responded to by this memory
system.mem_ctrls.bw_read::.cpu.inst         366889670                       # Total read bandwidth from this memory (bytes/s)
system.mem_ctrls.bw_read::.cpu.data          20476847                       # Total read bandwidth from this memory (bytes/s)
system.mem_ctrls.bw_read::total             387366517                       # Total read bandwidth from this memory (bytes/s)
system.mem_ctrls.bw_inst_read::.cpu.inst    366889670                       # Instruction read bandwidth from this memory (bytes/s)
system.mem_ctrls.bw_inst_read::total        366889670                       # Instruction read bandwidth from this memory (bytes/s)
system.mem_ctrls.bw_write::.writebacks         307923                       # Write bandwidth from this memory (bytes/s)
system.mem_ctrls.bw_write::total               307923                       # Write bandwidth from this memory (bytes/s)
system.mem_ctrls.bw_total::.writebacks         307923                       # Total bandwidth to/from this memory (bytes/s)
system.mem_ctrls.bw_total::.cpu.inst        366889670                       # Total bandwidth to/from this memory (bytes/s)
system.mem_ctrls.bw_total::.cpu.data         20476847                       # Total bandwidth to/from this memory (bytes/s)
system.mem_ctrls.bw_total::total            387674439                       # Total bandwidth to/from this memory (bytes/s)
system.mem_ctrls.avgPriority_.writebacks::samples      1578.00                       # Average QoS priority value for accepted requests
system.mem_ctrls.avgPriority_.cpu.inst::samples       674.00                       # Average QoS priority value for accepted requests
system.mem_ctrls.avgPriority_.cpu.data::samples       133.00                       # Average QoS priority value for accepted requests
system.mem_ctrls.priorityMinLatency      0.000000018750                       # per QoS priority minimum request to response latency (s)
system.mem_ctrls.priorityMaxLatency      0.000244419750                       # per QoS priority maximum request to response latency (s)
system.mem_ctrls.numReadWriteTurnArounds           89                       # Number of turnarounds from READ to WRITE
system.mem_ctrls.numWriteReadTurnArounds           89                       # Number of turnarounds from WRITE to READ
system.mem_ctrls.numStayReadState                4026                       # Number of times bus staying in READ state
system.mem_ctrls.numStayWriteState               1500                       # Number of times bus staying in WRITE state
system.mem_ctrls.readReqs                        2516                       # Number of read requests accepted
system.mem_ctrls.writeReqs                       2385                       # Number of write requests accepted
system.mem_ctrls.readBursts                      2516                       # Number of DRAM read bursts, including those serviced by the write queue
system.mem_ctrls.writeBursts                     2385                       # Number of DRAM write bursts, including those merged in the write queue
system.mem_ctrls.servicedByWrQ                   1709                       # Number of DRAM read bursts serviced by the write queue
system.mem_ctrls.mergedWrBursts                   807                       # Number of DRAM write bursts merged with an existing one
system.mem_ctrls.neitherReadNorWriteReqs            0                       # Number of requests that are neither read nor write
system.mem_ctrls.perBankRdBursts::0               154                       # Per bank write bursts
system.mem_ctrls.perBankRdBursts::1                 0                       # Per bank write bursts
system.mem_ctrls.perBankRdBursts::2                 0                       # Per bank write bursts
system.mem_ctrls.perBankRdBursts::3                 0                       # Per bank write bursts
system.mem_ctrls.perBankRdBursts::4                 0                       # Per bank write bursts
system.mem_ctrls.perBankRdBursts::5                 0                       # Per bank write bursts
system.mem_ctrls.perBankRdBursts::6               159                       # Per bank write bursts
system.mem_ctrls.perBankRdBursts::7               135                       # Per bank write bursts
system.mem_ctrls.perBankRdBursts::8               210                       # Per bank write bursts
system.mem_ctrls.perBankRdBursts::9                19                       # Per bank write bursts
system.mem_ctrls.perBankRdBursts::10                0                       # Per bank write bursts
system.mem_ctrls.perBankRdBursts::11                0                       # Per bank write bursts
system.mem_ctrls.perBankRdBursts::12               18                       # Per bank write bursts
system.mem_ctrls.perBankRdBursts::13               14                       # Per bank write bursts
system.mem_ctrls.perBankRdBursts::14                7                       # Per bank write bursts
system.mem_ctrls.perBankRdBursts::15               91                       # Per bank write bursts
system.mem_ctrls.perBankWrBursts::0               231                       # Per bank write bursts
system.mem_ctrls.perBankWrBursts::1                 3                       # Per bank write bursts
system.mem_ctrls.perBankWrBursts::2                 0                       # Per bank write bursts
system.mem_ctrls.perBankWrBursts::3                 2                       # Per bank write bursts
system.mem_ctrls.perBankWrBursts::4                 6                       # Per bank write bursts
system.mem_ctrls.perBankWrBursts::5                 1                       # Per bank write bursts
system.mem_ctrls.perBankWrBursts::6               473                       # Per bank write bursts
system.mem_ctrls.perBankWrBursts::7               238                       # Per bank write bursts
system.mem_ctrls.perBankWrBursts::8               442                       # Per bank write bursts
system.mem_ctrls.perBankWrBursts::9                74                       # Per bank write bursts
system.mem_ctrls.perBankWrBursts::10                1                       # Per bank write bursts
system.mem_ctrls.perBankWrBursts::11                1                       # Per bank write bursts
system.mem_ctrls.perBankWrBursts::12               78                       # Per bank write bursts
system.mem_ctrls.perBankWrBursts::13               29                       # Per bank write bursts
system.mem_ctrls.perBankWrBursts::14                6                       # Per bank write bursts
system.mem_ctrls.perBankWrBursts::15                1                       # Per bank write bursts
system.mem_ctrls.avgRdQLen                       1.00                       # Average read queue length when enqueuing
system.mem_ctrls.avgWrQLen                      26.27                       # Average write queue length when enqueuing
system.mem_ctrls.totQLat                      7947000                       # Total ticks spent queuing
system.mem_ctrls.totBusLat                    4035000                       # Total ticks spent in databus transfers
system.mem_ctrls.totMemAccLat                23078250                       # Total ticks spent from burst creation until serviced by the DRAM
system.mem_ctrls.avgQLat                      9847.58                       # Average queueing delay per DRAM burst
system.mem_ctrls.avgBusLat                    5000.00                       # Average bus latency per DRAM burst
system.mem_ctrls.avgMemAccLat                28597.58                       # Average memory access latency per DRAM burst
system.mem_ctrls.numRdRetry                         0                       # Number of times read queue was full causing retry
system.mem_ctrls.numWrRetry                         0                       # Number of times write queue was full causing retry
system.mem_ctrls.readRowHits                      618                       # Number of row buffer hits during reads
system.mem_ctrls.writeRowHits                    1333                       # Number of row buffer hits during writes
system.mem_ctrls.readRowHitRate                 76.58                       # Row buffer hit rate for reads
system.mem_ctrls.writeRowHitRate                84.47                       # Row buffer hit rate for writes
system.mem_ctrls.readPktSize::0                     0                       # Read request sizes (log2)
system.mem_ctrls.readPktSize::1                     0                       # Read request sizes (log2)
system.mem_ctrls.readPktSize::2                     0                       # Read request sizes (log2)
system.mem_ctrls.readPktSize::3                     0                       # Read request sizes (log2)
system.mem_ctrls.readPktSize::4                     0                       # Read request sizes (log2)
system.mem_ctrls.readPktSize::5                     0                       # Read request sizes (log2)
system.mem_ctrls.readPktSize::6                  2516                       # Read request sizes (log2)
system.mem_ctrls.writePktSize::0                    0                       # Write request sizes (log2)
system.mem_ctrls.writePktSize::1                    0                       # Write request sizes (log2)
system.mem_ctrls.writePktSize::2                    0                       # Write request sizes (log2)
system.mem_ctrls.writePktSize::3                    0                       # Write request sizes (log2)
system.mem_ctrls.writePktSize::4                    0                       # Write request sizes (log2)
system.mem_ctrls.writePktSize::5                    0                       # Write request sizes (log2)
system.mem_ctrls.writePktSize::6                 2385                       # Write request sizes (log2)
system.mem_ctrls.rdQLenPdf::0                     807                       # What read queue length does an incoming req see
system.mem_ctrls.rdQLenPdf::1                       0                       # What read queue length does an incoming req see
system.mem_ctrls.rdQLenPdf::2                       0                       # What read queue length does an incoming req see
system.mem_ctrls.rdQLenPdf::3                       0                       # What read queue length does an incoming req see
system.mem_ctrls.rdQLenPdf::4                       0                       # What read queue length does an incoming req see
system.mem_ctrls.rdQLenPdf::5                       0                       # What read queue length does an incoming req see
system.mem_ctrls.rdQLenPdf::6                       0                       # What read queue length does an incoming req see
system.mem_ctrls.rdQLenPdf::7                       0                       # What read queue length does an incoming req see
system.mem_ctrls.rdQLenPdf::8                       0                       # What read queue length does an incoming req see
system.mem_ctrls.rdQLenPdf::9                       0                       # What read queue length does an incoming req see
system.mem_ctrls.rdQLenPdf::10                      0                       # What read queue length does an incoming req see
system.mem_ctrls.rdQLenPdf::11                      0                       # What read queue length does an incoming req see
system.mem_ctrls.rdQLenPdf::12                      0                       # What read queue length does an incoming req see
system.mem_ctrls.rdQLenPdf::13                      0                       # What read queue length does an incoming req see
system.mem_ctrls.rdQLenPdf::14                      0                       # What read queue length does an incoming req see
system.mem_ctrls.rdQLenPdf::15                      0                       # What read queue length does an incoming req see
system.mem_ctrls.rdQLenPdf::16                      0                       # What read queue length does an incoming req see
system.mem_ctrls.rdQLenPdf::17                      0                       # What read queue length does an incoming req see
system.mem_ctrls.rdQLenPdf::18                      0                       # What read queue length does an incoming req see
system.mem_ctrls.rdQLenPdf::19                      0                       # What read queue length does an incoming req see
system.mem_ctrls.rdQLenPdf::20                      0                       # What read queue length does an incoming req see
system.mem_ctrls.rdQLenPdf::21                      0                       # What read queue length does an incoming req see
system.mem_ctrls.rdQLenPdf::22                      0                       # What read queue length does an incoming req see
system.mem_ctrls.rdQLenPdf::23                      0                       # What read queue length does an incoming req see
system.mem_ctrls.rdQLenPdf::24                      0                       # What read queue length does an incoming req see
system.mem_ctrls.rdQLenPdf::25                      0                       # What read queue length does an incoming req see
system.mem_ctrls.rdQLenPdf::26                      0                       # What read queue length does an incoming req see
system.mem_ctrls.rdQLenPdf::27                      0                       # What read queue length does an incoming req see
system.mem_ctrls.rdQLenPdf::28                      0                       # What read queue length does an incoming req see
system.mem_ctrls.rdQLenPdf::29                      0                       # What read queue length does an incoming req see
system.mem_ctrls.rdQLenPdf::30                      0                       # What read queue length does an incoming req see
system.mem_ctrls.rdQLenPdf::31                      0                       # What read queue length does an incoming req see
system.mem_ctrls.wrQLenPdf::0                       0                       # What write queue length does an incoming req see
system.mem_ctrls.wrQLenPdf::1                       0                       # What write queue length does an incoming req see
system.mem_ctrls.wrQLenPdf::2                       0                       # What write queue length does an incoming req see
system.mem_ctrls.wrQLenPdf::3                       0                       # What write queue length does an incoming req see
system.mem_ctrls.wrQLenPdf::4                       0                       # What write queue length does an incoming req see
system.mem_ctrls.wrQLenPdf::5                       0                       # What write queue length does an incoming req see
system.mem_ctrls.wrQLenPdf::6                       0                       # What write queue length does an incoming req see
system.mem_ctrls.wrQLenPdf::7                       0                       # What write queue length does an incoming req see
system.mem_ctrls.wrQLenPdf::8                       0                       # What write queue length does an incoming req see
system.mem_ctrls.wrQLenPdf::9                       0                       # What write queue length does an incoming req see
system.mem_ctrls.wrQLenPdf::10                      0                       # What write queue length does an incoming req see
system.mem_ctrls.wrQLenPdf::11                      0                       # What write queue length does an incoming req see
system.mem_ctrls.wrQLenPdf::12                      0                       # What write queue length does an incoming req see
system.mem_ctrls.wrQLenPdf::13                      0                       # What write queue length does an incoming req see
system.mem_ctrls.wrQLenPdf::14                      0                       # What write queue length does an incoming req see
system.mem_ctrls.wrQLenPdf::15                     62                       # What write queue length does an incoming req see
system.mem_ctrls.wrQLenPdf::16                     64                       # What write queue length does an incoming req see
system.mem_ctrls.wrQLenPdf::17                     86                       # What write queue length does an incoming req see
system.mem_ctrls.wrQLenPdf::18                     91                       # What write queue length does an incoming req see
system.mem_ctrls.wrQLenPdf::19                     93                       # What write queue length does an incoming req see
system.mem_ctrls.wrQLenPdf::20                     95                       # What write queue length does an incoming req see
system.mem_ctrls.wrQLenPdf::21                     98                       # What write queue length does an incoming req see
system.mem_ctrls.wrQLenPdf::22                     89                       # What write queue length does an incoming req see
system.mem_ctrls.wrQLenPdf::23                     89                       # What write queue length does an incoming req see
system.mem_ctrls.wrQLenPdf::24                     89                       # What write queue length does an incoming req see
system.mem_ctrls.wrQLenPdf::25                     89                       # What write queue length does an incoming req see
system.mem_ctrls.wrQLenPdf::26                     89                       # What write queue length does an incoming req see
system.mem_ctrls.wrQLenPdf::27                     90                       # What write queue length does an incoming req see
system.mem_ctrls.wrQLenPdf::28                     89                       # What write queue length does an incoming req see
system.mem_ctrls.wrQLenPdf::29                     90                       # What write queue length does an incoming req see
system.mem_ctrls.wrQLenPdf::30                     89                       # What write queue length does an incoming req see
system.mem_ctrls.wrQLenPdf::31                     89                       # What write queue length does an incoming req see
system.mem_ctrls.wrQLenPdf::32                     89                       # What write queue length does an incoming req see
system.mem_ctrls.wrQLenPdf::33                      4                       # What write queue length does an incoming req see
system.mem_ctrls.wrQLenPdf::34                      2                       # What write queue length does an incoming req see
system.mem_ctrls.wrQLenPdf::35                      1                       # What write queue length does an incoming req see
system.mem_ctrls.wrQLenPdf::36                      1                       # What write queue length does an incoming req see
system.mem_ctrls.wrQLenPdf::37                      0                       # What write queue length does an incoming req see
system.mem_ctrls.wrQLenPdf::38                      0                       # What write queue length does an incoming req see
system.mem_ctrls.wrQLenPdf::39                      0                       # What write queue length does an incoming req see
system.mem_ctrls.wrQLenPdf::40                      0                       # What write queue length does an incoming req see
system.mem_ctrls.wrQLenPdf::41                      0                       # What write queue length does an incoming req see
system.mem_ctrls.wrQLenPdf::42                      0                       # What write queue length does an incoming req see
system.mem_ctrls.wrQLenPdf::43                      0                       # What write queue length does an incoming req see
system.mem_ctrls.wrQLenPdf::44                      0                       # What write queue length does an incoming req see
system.mem_ctrls.wrQLenPdf::45                      0                       # What write queue length does an incoming req see
system.mem_ctrls.wrQLenPdf::46                      0                       # What write queue length does an incoming req see
system.mem_ctrls.wrQLenPdf::47                      0                       # What write queue length does an incoming req see
system.mem_ctrls.wrQLenPdf::48                      0                       # What write queue length does an incoming req see
system.mem_ctrls.wrQLenPdf::49                      0                       # What write queue length does an incoming req see
system.mem_ctrls.wrQLenPdf::50                      0                       # What write queue length does an incoming req see
system.mem_ctrls.wrQLenPdf::51                      0                       # What write queue length does an incoming req see
system.mem_ctrls.wrQLenPdf::52                      0                       # What write queue length does an incoming req see
system.mem_ctrls.wrQLenPdf::53                      0                       # What write queue length does an incoming req see
system.mem_ctrls.wrQLenPdf::54                      0                       # What write queue length does an incoming req see
system.mem_ctrls.wrQLenPdf::55                      0                       # What write queue length does an incoming req see
system.mem_ctrls.wrQLenPdf::56                      0                       # What write queue length does an incoming req see
system.mem_ctrls.wrQLenPdf::57                      0                       # What write queue length does an incoming req see
system.mem_ctrls.wrQLenPdf::58                      0                       # What write queue length does an incoming req see
system.mem_ctrls.wrQLenPdf::59                      0                       # What write queue length does an incoming req see
system.mem_ctrls.wrQLenPdf::60                      0                       # What write queue length does an incoming req see
system.mem_ctrls.wrQLenPdf::61                      0                       # What write queue length does an incoming req see
system.mem_ctrls.wrQLenPdf::62                      0                       # What write queue length does an incoming req see
system.mem_ctrls.wrQLenPdf::63                      0                       # What write queue length does an incoming req see
system.mem_ctrls.bytesPerActivate::samples          437                       # Bytes accessed per row activation
system.mem_ctrls.bytesPerActivate::mean    347.240275                       # Bytes accessed per row activation
system.mem_ctrls.bytesPerActivate::gmean   222.953872                       # Bytes accessed per row activation
system.mem_ctrls.bytesPerActivate::stdev   320.803878                       # Bytes accessed per row activation
system.mem_ctrls.bytesPerActivate::0-127          109     24.94%     24.94% # Bytes accessed per row activation
system.mem_ctrls.bytesPerActivate::128-255          111     25.40%     50.34% # Bytes accessed per row activation
system.mem_ctrls.bytesPerActivate::256-383           70     16.02%     66.36% # Bytes accessed per row activation
system.mem_ctrls.bytesPerActivate::384-511           25      5.72%     72.08% # Bytes accessed per row activation
system.mem_ctrls.bytesPerActivate::512-639           36      8.24%     80.32% # Bytes accessed per row activation
system.mem_ctrls.bytesPerActivate::640-767           14      3.20%     83.52% # Bytes accessed per row activation
system.mem_ctrls.bytesPerActivate::768-895           12      2.75%     86.27% # Bytes accessed per row activation
system.mem_ctrls.bytesPerActivate::896-1023           16      3.66%     89.93% # Bytes accessed per row activation
system.mem_ctrls.bytesPerActivate::1024-1151           44     10.07%    100.00% # Bytes accessed per row activation
system.mem_ctrls.bytesPerActivate::total          437                       # Bytes accessed per row activation
system.mem_ctrls.rdPerTurnAround::samples           89                       # Reads before turning the bus around for writes
system.mem_ctrls.rdPerTurnAround::mean       9.134831                       # Reads before turning the bus around for writes
system.mem_ctrls.rdPerTurnAround::gmean      6.841565                       # Reads before turning the bus around for writes
system.mem_ctrls.rdPerTurnAround::stdev     15.017559                       # Reads before turning the bus around for writes
system.mem_ctrls.rdPerTurnAround::0-7              49     55.06%     55.06% # Reads before turning the bus around for writes
system.mem_ctrls.rdPerTurnAround::8-15             37     41.57%     96.63% # Reads before turning the bus around for writes
system.mem_ctrls.rdPerTurnAround::16-23             2      2.25%     98.88% # Reads before turning the bus around for writes
system.mem_ctrls.rdPerTurnAround::144-151            1      1.12%    100.00% # Reads before turning the bus around for writes
system.mem_ctrls.rdPerTurnAround::total            89                       # Reads before turning the bus around for writes
system.mem_ctrls.wrPerTurnAround::samples           89                       # Writes before turning the bus around for reads
system.mem_ctrls.wrPerTurnAround::mean      17.820225                       # Writes before turning the bus around for reads
system.mem_ctrls.wrPerTurnAround::gmean     17.767184                       # Writes before turning the bus around for reads
system.mem_ctrls.wrPerTurnAround::stdev      1.410688                       # Writes before turning the bus around for reads
system.mem_ctrls.wrPerTurnAround::16               24     26.97%     26.97% # Writes before turning the bus around for reads
system.mem_ctrls.wrPerTurnAround::17                3      3.37%     30.34% # Writes before turning the bus around for reads
system.mem_ctrls.wrPerTurnAround::18               34     38.20%     68.54% # Writes before turning the bus around for reads
system.mem_ctrls.wrPerTurnAround::19               26     29.21%     97.75% # Writes before turning the bus around for reads
system.mem_ctrls.wrPerTurnAround::20                1      1.12%     98.88% # Writes before turning the bus around for reads
system.mem_ctrls.wrPerTurnAround::25                1      1.12%    100.00% # Writes before turning the bus around for reads
system.mem_ctrls.wrPerTurnAround::total            89                       # Writes before turning the bus around for reads
system.mem_ctrls.bytesReadDRAM                  51648                       # Total number of bytes read from DRAM
system.mem_ctrls.bytesReadWrQ                  109376                       # Total number of bytes read from write queue
system.mem_ctrls.bytesWritten                  101504                       # Total number of bytes written to DRAM
system.mem_ctrls.bytesReadSys                  161024                       # Total read bytes from the system interface side
system.mem_ctrls.bytesWrittenSys               152640                       # Total written bytes from the system interface side
system.mem_ctrls.avgRdBW                       124.25                       # Average DRAM read bandwidth in MiByte/s
system.mem_ctrls.avgWrBW                       244.18                       # Average achieved write bandwidth in MiByte/s
system.mem_ctrls.avgRdBWSys                    387.37                       # Average system read bandwidth in MiByte/s
system.mem_ctrls.avgWrBWSys                    367.20                       # Average system write bandwidth in MiByte/s
system.mem_ctrls.peakBW                      12800.00                       # Theoretical peak bandwidth in MiByte/s
system.mem_ctrls.busUtil                         2.88                       # Data bus utilization in percentage
system.mem_ctrls.busUtilRead                     0.97                       # Data bus utilization in percentage for reads
system.mem_ctrls.busUtilWrite                    1.91                       # Data bus utilization in percentage for writes
system.mem_ctrls.totGap                     415689000                       # Total gap between requests
system.mem_ctrls.avgGap                      84817.18                       # Average gap between requests
system.mem_ctrls.masterReadBytes::.cpu.inst        43136                       # Per-master bytes read from memory
system.mem_ctrls.masterReadBytes::.cpu.data         8512                       # Per-master bytes read from memory
system.mem_ctrls.masterWriteBytes::.writebacks       101504                       # Per-master bytes write to memory
system.mem_ctrls.masterReadRate::.cpu.inst 103769885.659711942077                       # Per-master bytes read from memory rate (Bytes/sec)
system.mem_ctrls.masterReadRate::.cpu.data 20476846.873503990471                       # Per-master bytes read from memory rate (Bytes/sec)
system.mem_ctrls.masterWriteRate::.writebacks 244182549.935167878866                       # Per-master bytes write to memory rate (Bytes/sec)
system.mem_ctrls.masterReadAccesses::.cpu.inst         2383                       # Per-master read serviced memory accesses
system.mem_ctrls.masterReadAccesses::.cpu.data          133                       # Per-master read serviced memory accesses
system.mem_ctrls.masterWriteAccesses::.writebacks         2385                       # Per-master write serviced memory accesses
system.mem_ctrls.masterReadTotalLat::.cpu.inst     20078000                       # Per-master read total memory access latency
system.mem_ctrls.masterReadTotalLat::.cpu.data      3000250                       # Per-master read total memory access latency
system.mem_ctrls.masterWriteTotalLat::.writebacks  10704462000                       # Per-master write total memory access latency
system.mem_ctrls.masterReadAvgLat::.cpu.inst      8425.51                       # Per-master read average memory access latency
system.mem_ctrls.masterReadAvgLat::.cpu.data     22558.27                       # Per-master read average memory access latency
system.mem_ctrls.masterWriteAvgLat::.writebacks   4488244.03                       # Per-master write average memory access latency
system.mem_ctrls.pageHitRate                    81.80                       # Row buffer hit rate, read and write combined
system.mem_ctrls.rank1.actEnergy              1428000                       # Energy for activate commands per rank (pJ)
system.mem_ctrls.rank1.preEnergy               743820                       # Energy for precharge commands per rank (pJ)
system.mem_ctrls.rank1.readEnergy             2570400                       # Energy for read commands per rank (pJ)
system.mem_ctrls.rank1.writeEnergy            3299040                       # Energy for write commands per rank (pJ)
system.mem_ctrls.rank1.refreshEnergy     32575920.000000                       # Energy for refresh commands per rank (pJ)
system.mem_ctrls.rank1.actBackEnergy        139266390                       # Energy for active background per rank (pJ)
system.mem_ctrls.rank1.preBackEnergy         42427200                       # Energy for precharge background per rank (pJ)
system.mem_ctrls.rank1.actPowerDownEnergy            0                       # Energy for active power-down per rank (pJ)
system.mem_ctrls.rank1.prePowerDownEnergy            0                       # Energy for precharge power-down per rank (pJ)
system.mem_ctrls.rank1.selfRefreshEnergy            0                       # Energy for self refresh per rank (pJ)
system.mem_ctrls.rank1.totalEnergy          222310770                       # Total energy per rank (pJ)
system.mem_ctrls.rank1.averagePower        534.800704                       # Core power per rank (mW)
system.mem_ctrls.rank1.totalIdleTime                0                       # Total Idle time Per DRAM Rank
system.mem_ctrls.rank1.memoryStateTime::IDLE    109080750                       # Time in different power states
system.mem_ctrls.rank1.memoryStateTime::REF     13780000                       # Time in different power states
system.mem_ctrls.rank1.memoryStateTime::SREF            0                       # Time in different power states
system.mem_ctrls.rank1.memoryStateTime::PRE_PDN            0                       # Time in different power states
system.mem_ctrls.rank1.memoryStateTime::ACT    293035250                       # Time in different power states
system.mem_ctrls.rank1.memoryStateTime::ACT_PDN            0                       # Time in different power states
system.mem_ctrls.rank0.actEnergy              1749300                       # Energy for activate commands per rank (pJ)
system.mem_ctrls.rank0.preEnergy               918390                       # Energy for precharge commands per rank (pJ)
system.mem_ctrls.rank0.readEnergy             3234420                       # Energy for read commands per rank (pJ)
system.mem_ctrls.rank0.writeEnergy            4979880                       # Energy for write commands per rank (pJ)
system.mem_ctrls.rank0.refreshEnergy     32575920.000000                       # Energy for refresh commands per rank (pJ)
system.mem_ctrls.rank0.actBackEnergy        134952060                       # Energy for active background per rank (pJ)
system.mem_ctrls.rank0.preBackEnergy         46204320                       # Energy for precharge background per rank (pJ)
system.mem_ctrls.rank0.actPowerDownEnergy            0                       # Energy for active power-down per rank (pJ)
system.mem_ctrls.rank0.prePowerDownEnergy            0                       # Energy for precharge power-down per rank (pJ)
system.mem_ctrls.rank0.selfRefreshEnergy            0                       # Energy for self refresh per rank (pJ)
system.mem_ctrls.rank0.totalEnergy          224614290                       # Total energy per rank (pJ)
system.mem_ctrls.rank0.averagePower        540.342155                       # Core power per rank (mW)
system.mem_ctrls.rank0.totalIdleTime                0                       # Total Idle time Per DRAM Rank
system.mem_ctrls.rank0.memoryStateTime::IDLE    118841750                       # Time in different power states
system.mem_ctrls.rank0.memoryStateTime::REF     13780000                       # Time in different power states
system.mem_ctrls.rank0.memoryStateTime::SREF            0                       # Time in different power states
system.mem_ctrls.rank0.memoryStateTime::PRE_PDN            0                       # Time in different power states
system.mem_ctrls.rank0.memoryStateTime::ACT    283648750                       # Time in different power states
system.mem_ctrls.rank0.memoryStateTime::ACT_PDN            0                       # Time in different power states
system.cpu_clk_domain.clock                       500                       # Clock period in ticks
system.cpu.numPwrStateTransitions                   1                       # Number of power state transitions
system.cpu.pwrStateResidencyTicks::ON       751353000                       # Cumulative time (in ticks) in various power states
system.cpu.icache.pwrStateResidencyTicks::UNDEFINED    751353000                       # Cumulative time (in ticks) in various power states
system.cpu.icache.demand_hits::.cpu.inst       409540                       # number of demand (read+write) hits
system.cpu.icache.demand_hits::total           409540                       # number of demand (read+write) hits
system.cpu.icache.overall_hits::.cpu.inst       409540                       # number of overall hits
system.cpu.icache.overall_hits::total          409540                       # number of overall hits
system.cpu.icache.demand_misses::.cpu.inst         5192                       # number of demand (read+write) misses
system.cpu.icache.demand_misses::total           5192                       # number of demand (read+write) misses
system.cpu.icache.overall_misses::.cpu.inst         5192                       # number of overall misses
system.cpu.icache.overall_misses::total          5192                       # number of overall misses
system.cpu.icache.demand_miss_latency::.cpu.inst    180297500                       # number of demand (read+write) miss cycles
system.cpu.icache.demand_miss_latency::total    180297500                       # number of demand (read+write) miss cycles
system.cpu.icache.overall_miss_latency::.cpu.inst    180297500                       # number of overall miss cycles
system.cpu.icache.overall_miss_latency::total    180297500                       # number of overall miss cycles
system.cpu.icache.demand_accesses::.cpu.inst       414732                       # number of demand (read+write) accesses
system.cpu.icache.demand_accesses::total       414732                       # number of demand (read+write) accesses
system.cpu.icache.overall_accesses::.cpu.inst       414732                       # number of overall (read+write) accesses
system.cpu.icache.overall_accesses::total       414732                       # number of overall (read+write) accesses
system.cpu.icache.demand_miss_rate::.cpu.inst     0.012519                       # miss rate for demand accesses
system.cpu.icache.demand_miss_rate::total     0.012519                       # miss rate for demand accesses
system.cpu.icache.overall_miss_rate::.cpu.inst     0.012519                       # miss rate for overall accesses
system.cpu.icache.overall_miss_rate::total     0.012519                       # miss rate for overall accesses
system.cpu.icache.demand_avg_miss_latency::.cpu.inst 34726.020801                       # average overall miss latency
system.cpu.icache.demand_avg_miss_latency::total 34726.020801                       # average overall miss latency
system.cpu.icache.overall_avg_miss_latency::.cpu.inst 34726.020801                       # average overall miss latency
system.cpu.icache.overall_avg_miss_latency::total 34726.020801                       # average overall miss latency
system.cpu.icache.blocked_cycles::no_mshrs            0                       # number of cycles access was blocked
system.cpu.icache.blocked_cycles::no_targets            0                       # number of cycles access was blocked
system.cpu.icache.blocked::no_mshrs                 0                       # number of cycles access was blocked
system.cpu.icache.blocked::no_targets               0                       # number of cycles access was blocked
system.cpu.icache.avg_blocked_cycles::no_mshrs          nan                       # average number of cycles each access was blocked
system.cpu.icache.avg_blocked_cycles::no_targets          nan                       # average number of cycles each access was blocked
system.cpu.icache.writebacks::.writebacks         4944                       # number of writebacks
system.cpu.icache.writebacks::total              4944                       # number of writebacks
system.cpu.icache.demand_mshr_misses::.cpu.inst         5192                       # number of demand (read+write) MSHR misses
system.cpu.icache.demand_mshr_misses::total         5192                       # number of demand (read+write) MSHR misses
system.cpu.icache.overall_mshr_misses::.cpu.inst         5192                       # number of overall MSHR misses
system.cpu.icache.overall_mshr_misses::total         5192                       # number of overall MSHR misses
system.cpu.icache.demand_mshr_miss_latency::.cpu.inst    175105500                       # number of demand (read+write) MSHR miss cycles
system.cpu.icache.demand_mshr_miss_latency::total    175105500                       # number of demand (read+write) MSHR miss cycles
system.cpu.icache.overall_mshr_miss_latency::.cpu.inst    175105500                       # number of overall MSHR miss cycles
system.cpu.icache.overall_mshr_miss_latency::total    175105500                       # number of overall MSHR miss cycles
system.cpu.icache.demand_mshr_miss_rate::.cpu.inst     0.012519                       # mshr miss rate for demand accesses
system.cpu.icache.demand_mshr_miss_rate::total     0.012519                       # mshr miss rate for demand accesses
system.cpu.icache.overall_mshr_miss_rate::.cpu.inst     0.012519                       # mshr miss rate for overall accesses
system.cpu.icache.overall_mshr_miss_rate::total     0.012519                       # mshr miss rate for overall accesses
system.cpu.icache.demand_avg_mshr_miss_latency::.cpu.inst 33726.020801                       # average overall mshr miss latency
system.cpu.icache.demand_avg_mshr_miss_latency::total 33726.020801                       # average overall mshr miss latency
system.cpu.icache.overall_avg_mshr_miss_latency::.cpu.inst 33726.020801                       # average overall mshr miss latency
system.cpu.icache.overall_avg_mshr_miss_latency::total 33726.020801                       # average overall mshr miss latency
system.cpu.icache.replacements                   4944                       # number of replacements
system.cpu.icache.ReadReq_hits::.cpu.inst       409540                       # number of ReadReq hits
system.cpu.icache.ReadReq_hits::total          409540                       # number of ReadReq hits
system.cpu.icache.ReadReq_misses::.cpu.inst         5192                       # number of ReadReq misses
system.cpu.icache.ReadReq_misses::total          5192                       # number of ReadReq misses
system.cpu.icache.ReadReq_miss_latency::.cpu.inst    180297500                       # number of ReadReq miss cycles
system.cpu.icache.ReadReq_miss_latency::total    180297500                       # number of ReadReq miss cycles
system.cpu.icache.ReadReq_accesses::.cpu.inst       414732                       # number of ReadReq accesses(hits+misses)
system.cpu.icache.ReadReq_accesses::total       414732                       # number of ReadReq accesses(hits+misses)
system.cpu.icache.ReadReq_miss_rate::.cpu.inst     0.012519                       # miss rate for ReadReq accesses
system.cpu.icache.ReadReq_miss_rate::total     0.012519                       # miss rate for ReadReq accesses
system.cpu.icache.ReadReq_avg_miss_latency::.cpu.inst 34726.020801                       # average ReadReq miss latency
system.cpu.icache.ReadReq_avg_miss_latency::total 34726.020801                       # average ReadReq miss latency
system.cpu.icache.ReadReq_mshr_misses::.cpu.inst         5192                       # number of ReadReq MSHR misses
system.cpu.icache.ReadReq_mshr_misses::total         5192                       # number of ReadReq MSHR misses
system.cpu.icache.ReadReq_mshr_miss_latency::.cpu.inst    175105500                       # number of ReadReq MSHR miss cycles
system.cpu.icache.ReadReq_mshr_miss_latency::total    175105500                       # number of ReadReq MSHR miss cycles
system.cpu.icache.ReadReq_mshr_miss_rate::.cpu.inst     0.012519                       # mshr miss rate for ReadReq accesses
system.cpu.icache.ReadReq_mshr_miss_rate::total     0.012519                       # mshr miss rate for ReadReq accesses
system.cpu.icache.ReadReq_avg_mshr_miss_latency::.cpu.inst 33726.020801                       # average ReadReq mshr miss latency
system.cpu.icache.ReadReq_avg_mshr_miss_latency::total 33726.020801                       # average ReadReq mshr miss latency
system.cpu.icache.tags.pwrStateResidencyTicks::UNDEFINED    751353000                       # Cumulative time (in ticks) in various power states
system.cpu.icache.tags.tagsinuse           240.947845                       # Cycle average of tags in use
system.cpu.icache.tags.total_refs              185114                       # Total number of references to valid blocks.
system.cpu.icache.tags.sampled_refs              4944                       # Sample count of references to valid blocks.
system.cpu.icache.tags.avg_refs             37.442152                       # Average number of references to valid blocks.
system.cpu.icache.tags.warmup_cycle             77000                       # Cycle when the warmup percentage was hit.
system.cpu.icache.tags.occ_blocks::.cpu.inst   240.947845                       # Average occupied blocks per requestor
system.cpu.icache.tags.occ_percent::.cpu.inst     0.941203                       # Average percentage of cache occupancy
system.cpu.icache.tags.occ_percent::total     0.941203                       # Average percentage of cache occupancy
system.cpu.icache.tags.occ_task_id_blocks::1024          248                       # Occupied blocks per task id
system.cpu.icache.tags.age_task_id_blocks_1024::0           31                       # Occupied blocks per task id
system.cpu.icache.tags.age_task_id_blocks_1024::1            5                       # Occupied blocks per task id
system.cpu.icache.tags.age_task_id_blocks_1024::2          212                       # Occupied blocks per task id
system.cpu.icache.tags.occ_task_id_percent::1024     0.968750                       # Percentage of cache occupancy per task id
system.cpu.icache.tags.tag_accesses            834656                       # Number of tag accesses
system.cpu.icache.tags.data_accesses           834656                       # Number of data accesses
system.cpu.dtb.walker.pwrStateResidencyTicks::UNDEFINED    751353000                       # Cumulative time (in ticks) in various power states
system.cpu.interrupts.clk_domain.clock           8000                       # Clock period in ticks
system.cpu.itb_walker_cache.pwrStateResidencyTicks::UNDEFINED    751353000                       # Cumulative time (in ticks) in various power states
system.cpu.itb_walker_cache.blocked_cycles::no_mshrs            0                       # number of cycles access was blocked
system.cpu.itb_walker_cache.blocked_cycles::no_targets            0                       # number of cycles access was blocked
system.cpu.itb_walker_cache.blocked::no_mshrs            0                       # number of cycles access was blocked
system.cpu.itb_walker_cache.blocked::no_targets            0                       # number of cycles access was blocked
system.cpu.itb_walker_cache.avg_blocked_cycles::no_mshrs          nan                       # average number of cycles each access was blocked
system.cpu.itb_walker_cache.avg_blocked_cycles::no_targets          nan                       # average number of cycles each access was blocked
system.cpu.itb_walker_cache.replacements            0                       # number of replacements
system.cpu.itb_walker_cache.tags.pwrStateResidencyTicks::UNDEFINED    751353000                       # Cumulative time (in ticks) in various power states
system.cpu.itb_walker_cache.tags.tagsinuse            0                       # Cycle average of tags in use
system.cpu.itb_walker_cache.tags.total_refs            0                       # Total number of references to valid blocks.
system.cpu.itb_walker_cache.tags.sampled_refs            0                       # Sample count of references to valid blocks.
system.cpu.itb_walker_cache.tags.avg_refs          nan                       # Average number of references to valid blocks.
system.cpu.itb_walker_cache.tags.warmup_cycle            0                       # Cycle when the warmup percentage was hit.
system.cpu.itb_walker_cache.tags.tag_accesses            0                       # Number of tag accesses
system.cpu.itb_walker_cache.tags.data_accesses            0                       # Number of data accesses
system.cpu.itb.walker.pwrStateResidencyTicks::UNDEFINED    751353000                       # Cumulative time (in ticks) in various power states
system.cpu.dtb_walker_cache.pwrStateResidencyTicks::UNDEFINED    751353000                       # Cumulative time (in ticks) in various power states
system.cpu.dtb_walker_cache.blocked_cycles::no_mshrs            0                       # number of cycles access was blocked
system.cpu.dtb_walker_cache.blocked_cycles::no_targets            0                       # number of cycles access was blocked
system.cpu.dtb_walker_cache.blocked::no_mshrs            0                       # number of cycles access was blocked
system.cpu.dtb_walker_cache.blocked::no_targets            0                       # number of cycles access was blocked
system.cpu.dtb_walker_cache.avg_blocked_cycles::no_mshrs          nan                       # average number of cycles each access was blocked
system.cpu.dtb_walker_cache.avg_blocked_cycles::no_targets          nan                       # average number of cycles each access was blocked
system.cpu.dtb_walker_cache.replacements            0                       # number of replacements
system.cpu.dtb_walker_cache.tags.pwrStateResidencyTicks::UNDEFINED    751353000                       # Cumulative time (in ticks) in various power states
system.cpu.dtb_walker_cache.tags.tagsinuse            0                       # Cycle average of tags in use
system.cpu.dtb_walker_cache.tags.total_refs            0                       # Total number of references to valid blocks.
system.cpu.dtb_walker_cache.tags.sampled_refs            0                       # Sample count of references to valid blocks.
system.cpu.dtb_walker_cache.tags.avg_refs          nan                       # Average number of references to valid blocks.
system.cpu.dtb_walker_cache.tags.warmup_cycle            0                       # Cycle when the warmup percentage was hit.
system.cpu.dtb_walker_cache.tags.tag_accesses            0                       # Number of tag accesses
system.cpu.dtb_walker_cache.tags.data_accesses            0                       # Number of data accesses
system.cpu.dcache.pwrStateResidencyTicks::UNDEFINED    751353000                       # Cumulative time (in ticks) in various power states
system.cpu.dcache.demand_hits::.cpu.data       121099                       # number of demand (read+write) hits
system.cpu.dcache.demand_hits::total           121099                       # number of demand (read+write) hits
system.cpu.dcache.overall_hits::.cpu.data       121099                       # number of overall hits
system.cpu.dcache.overall_hits::total          121099                       # number of overall hits
system.cpu.dcache.demand_misses::.cpu.data          393                       # number of demand (read+write) misses
system.cpu.dcache.demand_misses::total            393                       # number of demand (read+write) misses
system.cpu.dcache.overall_misses::.cpu.data          393                       # number of overall misses
system.cpu.dcache.overall_misses::total           393                       # number of overall misses
system.cpu.dcache.demand_miss_latency::.cpu.data     22928500                       # number of demand (read+write) miss cycles
system.cpu.dcache.demand_miss_latency::total     22928500                       # number of demand (read+write) miss cycles
system.cpu.dcache.overall_miss_latency::.cpu.data     22928500                       # number of overall miss cycles
system.cpu.dcache.overall_miss_latency::total     22928500                       # number of overall miss cycles
system.cpu.dcache.demand_accesses::.cpu.data       121492                       # number of demand (read+write) accesses
system.cpu.dcache.demand_accesses::total       121492                       # number of demand (read+write) accesses
system.cpu.dcache.overall_accesses::.cpu.data       121492                       # number of overall (read+write) accesses
system.cpu.dcache.overall_accesses::total       121492                       # number of overall (read+write) accesses
system.cpu.dcache.demand_miss_rate::.cpu.data     0.003235                       # miss rate for demand accesses
system.cpu.dcache.demand_miss_rate::total     0.003235                       # miss rate for demand accesses
system.cpu.dcache.overall_miss_rate::.cpu.data     0.003235                       # miss rate for overall accesses
system.cpu.dcache.overall_miss_rate::total     0.003235                       # miss rate for overall accesses
system.cpu.dcache.demand_avg_miss_latency::.cpu.data 58342.239186                       # average overall miss latency
system.cpu.dcache.demand_avg_miss_latency::total 58342.239186                       # average overall miss latency
system.cpu.dcache.overall_avg_miss_latency::.cpu.data 58342.239186                       # average overall miss latency
system.cpu.dcache.overall_avg_miss_latency::total 58342.239186                       # average overall miss latency
system.cpu.dcache.blocked_cycles::no_mshrs            0                       # number of cycles access was blocked
system.cpu.dcache.blocked_cycles::no_targets            0                       # number of cycles access was blocked
system.cpu.dcache.blocked::no_mshrs                 0                       # number of cycles access was blocked
system.cpu.dcache.blocked::no_targets               0                       # number of cycles access was blocked
system.cpu.dcache.avg_blocked_cycles::no_mshrs          nan                       # average number of cycles each access was blocked
system.cpu.dcache.avg_blocked_cycles::no_targets          nan                       # average number of cycles each access was blocked
system.cpu.dcache.writebacks::.writebacks            2                       # number of writebacks
system.cpu.dcache.writebacks::total                 2                       # number of writebacks
system.cpu.dcache.demand_mshr_misses::.cpu.data          393                       # number of demand (read+write) MSHR misses
system.cpu.dcache.demand_mshr_misses::total          393                       # number of demand (read+write) MSHR misses
system.cpu.dcache.overall_mshr_misses::.cpu.data          393                       # number of overall MSHR misses
system.cpu.dcache.overall_mshr_misses::total          393                       # number of overall MSHR misses
system.cpu.dcache.demand_mshr_miss_latency::.cpu.data     22535500                       # number of demand (read+write) MSHR miss cycles
system.cpu.dcache.demand_mshr_miss_latency::total     22535500                       # number of demand (read+write) MSHR miss cycles
system.cpu.dcache.overall_mshr_miss_latency::.cpu.data     22535500                       # number of overall MSHR miss cycles
system.cpu.dcache.overall_mshr_miss_latency::total     22535500                       # number of overall MSHR miss cycles
system.cpu.dcache.demand_mshr_miss_rate::.cpu.data     0.003235                       # mshr miss rate for demand accesses
system.cpu.dcache.demand_mshr_miss_rate::total     0.003235                       # mshr miss rate for demand accesses
system.cpu.dcache.overall_mshr_miss_rate::.cpu.data     0.003235                       # mshr miss rate for overall accesses
system.cpu.dcache.overall_mshr_miss_rate::total     0.003235                       # mshr miss rate for overall accesses
system.cpu.dcache.demand_avg_mshr_miss_latency::.cpu.data 57342.239186                       # average overall mshr miss latency
system.cpu.dcache.demand_avg_mshr_miss_latency::total 57342.239186                       # average overall mshr miss latency
system.cpu.dcache.overall_avg_mshr_miss_latency::.cpu.data 57342.239186                       # average overall mshr miss latency
system.cpu.dcache.overall_avg_mshr_miss_latency::total 57342.239186                       # average overall mshr miss latency
system.cpu.dcache.replacements                     27                       # number of replacements
system.cpu.dcache.ReadReq_hits::.cpu.data        79746                       # number of ReadReq hits
system.cpu.dcache.ReadReq_hits::total           79746                       # number of ReadReq hits
system.cpu.dcache.ReadReq_misses::.cpu.data          247                       # number of ReadReq misses
system.cpu.dcache.ReadReq_misses::total           247                       # number of ReadReq misses
system.cpu.dcache.ReadReq_miss_latency::.cpu.data     14050000                       # number of ReadReq miss cycles
system.cpu.dcache.ReadReq_miss_latency::total     14050000                       # number of ReadReq miss cycles
system.cpu.dcache.ReadReq_accesses::.cpu.data        79993                       # number of ReadReq accesses(hits+misses)
system.cpu.dcache.ReadReq_accesses::total        79993                       # number of ReadReq accesses(hits+misses)
system.cpu.dcache.ReadReq_miss_rate::.cpu.data     0.003088                       # miss rate for ReadReq accesses
system.cpu.dcache.ReadReq_miss_rate::total     0.003088                       # miss rate for ReadReq accesses
system.cpu.dcache.ReadReq_avg_miss_latency::.cpu.data 56882.591093                       # average ReadReq miss latency
system.cpu.dcache.ReadReq_avg_miss_latency::total 56882.591093                       # average ReadReq miss latency
system.cpu.dcache.ReadReq_mshr_misses::.cpu.data          247                       # number of ReadReq MSHR misses
system.cpu.dcache.ReadReq_mshr_misses::total          247                       # number of ReadReq MSHR misses
system.cpu.dcache.ReadReq_mshr_miss_latency::.cpu.data     13803000                       # number of ReadReq MSHR miss cycles
system.cpu.dcache.ReadReq_mshr_miss_latency::total     13803000                       # number of ReadReq MSHR miss cycles
system.cpu.dcache.ReadReq_mshr_miss_rate::.cpu.data     0.003088                       # mshr miss rate for ReadReq accesses
system.cpu.dcache.ReadReq_mshr_miss_rate::total     0.003088                       # mshr miss rate for ReadReq accesses
system.cpu.dcache.ReadReq_avg_mshr_miss_latency::.cpu.data 55882.591093                       # average ReadReq mshr miss latency
system.cpu.dcache.ReadReq_avg_mshr_miss_latency::total 55882.591093                       # average ReadReq mshr miss latency
system.cpu.dcache.WriteReq_hits::.cpu.data        41353                       # number of WriteReq hits
system.cpu.dcache.WriteReq_hits::total          41353                       # number of WriteReq hits
system.cpu.dcache.WriteReq_misses::.cpu.data          146                       # number of WriteReq misses
system.cpu.dcache.WriteReq_misses::total          146                       # number of WriteReq misses
system.cpu.dcache.WriteReq_miss_latency::.cpu.data      8878500                       # number of WriteReq miss cycles
system.cpu.dcache.WriteReq_miss_latency::total      8878500                       # number of WriteReq miss cycles
system.cpu.dcache.WriteReq_accesses::.cpu.data        41499                       # number of WriteReq accesses(hits+misses)
system.cpu.dcache.WriteReq_accesses::total        41499                       # number of WriteReq accesses(hits+misses)
system.cpu.dcache.WriteReq_miss_rate::.cpu.data     0.003518                       # miss rate for WriteReq accesses
system.cpu.dcache.WriteReq_miss_rate::total     0.003518                       # miss rate for WriteReq accesses
system.cpu.dcache.WriteReq_avg_miss_latency::.cpu.data 60811.643836                       # average WriteReq miss latency
system.cpu.dcache.WriteReq_avg_miss_latency::total 60811.643836                       # average WriteReq miss latency
system.cpu.dcache.WriteReq_mshr_misses::.cpu.data          146                       # number of WriteReq MSHR misses
system.cpu.dcache.WriteReq_mshr_misses::total          146                       # number of WriteReq MSHR misses
system.cpu.dcache.WriteReq_mshr_miss_latency::.cpu.data      8732500                       # number of WriteReq MSHR miss cycles
system.cpu.dcache.WriteReq_mshr_miss_latency::total      8732500                       # number of WriteReq MSHR miss cycles
system.cpu.dcache.WriteReq_mshr_miss_rate::.cpu.data     0.003518                       # mshr miss rate for WriteReq accesses
system.cpu.dcache.WriteReq_mshr_miss_rate::total     0.003518                       # mshr miss rate for WriteReq accesses
system.cpu.dcache.WriteReq_avg_mshr_miss_latency::.cpu.data 59811.643836                       # average WriteReq mshr miss latency
system.cpu.dcache.WriteReq_avg_mshr_miss_latency::total 59811.643836                       # average WriteReq mshr miss latency
system.cpu.dcache.tags.pwrStateResidencyTicks::UNDEFINED    751353000                       # Cumulative time (in ticks) in various power states
system.cpu.dcache.tags.tagsinuse           299.730729                       # Cycle average of tags in use
system.cpu.dcache.tags.total_refs                 106                       # Total number of references to valid blocks.
system.cpu.dcache.tags.sampled_refs                27                       # Sample count of references to valid blocks.
system.cpu.dcache.tags.avg_refs              3.925926                       # Average number of references to valid blocks.
system.cpu.dcache.tags.warmup_cycle            148000                       # Cycle when the warmup percentage was hit.
system.cpu.dcache.tags.occ_blocks::.cpu.data   299.730729                       # Average occupied blocks per requestor
system.cpu.dcache.tags.occ_percent::.cpu.data     0.292706                       # Average percentage of cache occupancy
system.cpu.dcache.tags.occ_percent::total     0.292706                       # Average percentage of cache occupancy
system.cpu.dcache.tags.occ_task_id_blocks::1024          366                       # Occupied blocks per task id
[...]
system.cpu.icache.ReadReq_mshr_misses::total         7835                       # number of ReadReq MSHR misses
system.cpu.icache.ReadReq_mshr_miss_latency::.cpu.inst    265895500                       # number of ReadReq MSHR miss cycles
system.cpu.icache.ReadReq_mshr_miss_latency::total    265895500                       # number of ReadReq MSHR miss cycles
system.cpu.icache.ReadReq_mshr_miss_rate::.cpu.inst     0.012217                       # mshr miss rate for ReadReq accesses
system.cpu.icache.ReadReq_mshr_miss_rate::total     0.012217                       # mshr miss rate for ReadReq accesses
system.cpu.icache.ReadReq_avg_mshr_miss_latency::.cpu.inst 33936.885769                       # average ReadReq mshr miss latency
system.cpu.icache.ReadReq_avg_mshr_miss_latency::total 33936.885769                       # average ReadReq mshr miss latency
system.cpu.icache.tags.pwrStateResidencyTicks::UNDEFINED   1150929000                       # Cumulative time (in ticks) in various power states
system.cpu.icache.tags.tagsinuse           243.414372                       # Cycle average of tags in use
system.cpu.icache.tags.total_refs              641318                       # Total number of references to valid blocks.
system.cpu.icache.tags.sampled_refs              7835                       # Sample count of references to valid blocks.
system.cpu.icache.tags.avg_refs             81.852967                       # Average number of references to valid blocks.
system.cpu.icache.tags.warmup_cycle             77000                       # Cycle when the warmup percentage was hit.
system.cpu.icache.tags.occ_blocks::.cpu.inst   243.414372                       # Average occupied blocks per requestor
system.cpu.icache.tags.occ_percent::.cpu.inst     0.950837                       # Average percentage of cache occupancy
system.cpu.icache.tags.occ_percent::total     0.950837                       # Average percentage of cache occupancy
system.cpu.icache.tags.occ_task_id_blocks::1024          254                       # Occupied blocks per task id
system.cpu.icache.tags.age_task_id_blocks_1024::0           85                       # Occupied blocks per task id
system.cpu.icache.tags.age_task_id_blocks_1024::1           19                       # Occupied blocks per task id
system.cpu.icache.tags.age_task_id_blocks_1024::2           32                       # Occupied blocks per task id
system.cpu.icache.tags.age_task_id_blocks_1024::3          118                       # Occupied blocks per task id
system.cpu.icache.tags.occ_task_id_percent::1024     0.992188                       # Percentage of cache occupancy per task id
system.cpu.icache.tags.tag_accesses           1290471                       # Number of tag accesses
system.cpu.icache.tags.data_accesses          1290471                       # Number of data accesses
system.cpu.dtb.walker.pwrStateResidencyTicks::UNDEFINED   1150929000                       # Cumulative time (in ticks) in various power states
system.cpu.interrupts.clk_domain.clock           8000                       # Clock period in ticks
system.cpu.itb_walker_cache.pwrStateResidencyTicks::UNDEFINED   1150929000                       # Cumulative time (in ticks) in various power states
system.cpu.itb_walker_cache.blocked_cycles::no_mshrs            0                       # number of cycles access was blocked
system.cpu.itb_walker_cache.blocked_cycles::no_targets            0                       # number of cycles access was blocked
system.cpu.itb_walker_cache.blocked::no_mshrs            0                       # number of cycles access was blocked
system.cpu.itb_walker_cache.blocked::no_targets            0                       # number of cycles access was blocked
system.cpu.itb_walker_cache.avg_blocked_cycles::no_mshrs          nan                       # average number of cycles each access was blocked
system.cpu.itb_walker_cache.avg_blocked_cycles::no_targets          nan                       # average number of cycles each access was blocked
system.cpu.itb_walker_cache.replacements            0                       # number of replacements
system.cpu.itb_walker_cache.tags.pwrStateResidencyTicks::UNDEFINED   1150929000                       # Cumulative time (in ticks) in various power states
system.cpu.itb_walker_cache.tags.tagsinuse            0                       # Cycle average of tags in use
system.cpu.itb_walker_cache.tags.total_refs            0                       # Total number of references to valid blocks.
system.cpu.itb_walker_cache.tags.sampled_refs            0                       # Sample count of references to valid blocks.
system.cpu.itb_walker_cache.tags.avg_refs          nan                       # Average number of references to valid blocks.
system.cpu.itb_walker_cache.tags.warmup_cycle            0                       # Cycle when the warmup percentage was hit.
system.cpu.itb_walker_cache.tags.tag_accesses            0                       # Number of tag accesses
system.cpu.itb_walker_cache.tags.data_accesses            0                       # Number of data accesses
system.cpu.itb.walker.pwrStateResidencyTicks::UNDEFINED   1150929000                       # Cumulative time (in ticks) in various power states
system.cpu.dtb_walker_cache.pwrStateResidencyTicks::UNDEFINED   1150929000                       # Cumulative time (in ticks) in various power states
system.cpu.dtb_walker_cache.blocked_cycles::no_mshrs            0                       # number of cycles access was blocked
system.cpu.dtb_walker_cache.blocked_cycles::no_targets            0                       # number of cycles access was blocked
system.cpu.dtb_walker_cache.blocked::no_mshrs            0                       # number of cycles access was blocked
system.cpu.dtb_walker_cache.blocked::no_targets            0                       # number of cycles access was blocked
system.cpu.dtb_walker_cache.avg_blocked_cycles::no_mshrs          nan                       # average number of cycles each access was blocked
system.cpu.dtb_walker_cache.avg_blocked_cycles::no_targets          nan                       # average number of cycles each access was blocked
system.cpu.dtb_walker_cache.replacements            0                       # number of replacements
system.cpu.dtb_walker_cache.tags.pwrStateResidencyTicks::UNDEFINED   1150929000                       # Cumulative time (in ticks) in various power states
system.cpu.dtb_walker_cache.tags.tagsinuse            0                       # Cycle average of tags in use
system.cpu.dtb_walker_cache.tags.total_refs            0                       # Total number of references to valid blocks.
system.cpu.dtb_walker_cache.tags.sampled_refs            0                       # Sample count of references to valid blocks.
system.cpu.dtb_walker_cache.tags.avg_refs          nan                       # Average number of references to valid blocks.
system.cpu.dtb_walker_cache.tags.warmup_cycle            0                       # Cycle when the warmup percentage was hit.
system.cpu.dtb_walker_cache.tags.tag_accesses            0                       # Number of tag accesses
system.cpu.dtb_walker_cache.tags.data_accesses            0                       # Number of data accesses
system.cpu.dcache.pwrStateResidencyTicks::UNDEFINED   1150929000                       # Cumulative time (in ticks) in various power states
system.cpu.dcache.demand_hits::.cpu.data       189238                       # number of demand (read+write) hits
system.cpu.dcache.demand_hits::total           189238                       # number of demand (read+write) hits
system.cpu.dcache.overall_hits::.cpu.data       189238                       # number of overall hits
system.cpu.dcache.overall_hits::total          189238                       # number of overall hits
system.cpu.dcache.demand_misses::.cpu.data          481                       # number of demand (read+write) misses
system.cpu.dcache.demand_misses::total            481                       # number of demand (read+write) misses
system.cpu.dcache.overall_misses::.cpu.data          481                       # number of overall misses
system.cpu.dcache.overall_misses::total           481                       # number of overall misses
system.cpu.dcache.demand_miss_latency::.cpu.data     28160500                       # number of demand (read+write) miss cycles
system.cpu.dcache.demand_miss_latency::total     28160500                       # number of demand (read+write) miss cycles
system.cpu.dcache.overall_miss_latency::.cpu.data     28160500                       # number of overall miss cycles
system.cpu.dcache.overall_miss_latency::total     28160500                       # number of overall miss cycles
system.cpu.dcache.demand_accesses::.cpu.data       189719                       # number of demand (read+write) accesses
system.cpu.dcache.demand_accesses::total       189719                       # number of demand (read+write) accesses
system.cpu.dcache.overall_accesses::.cpu.data       189719                       # number of overall (read+write) accesses
system.cpu.dcache.overall_accesses::total       189719                       # number of overall (read+write) accesses
system.cpu.dcache.demand_miss_rate::.cpu.data     0.002535                       # miss rate for demand accesses
system.cpu.dcache.demand_miss_rate::total     0.002535                       # miss rate for demand accesses
system.cpu.dcache.overall_miss_rate::.cpu.data     0.002535                       # miss rate for overall accesses
system.cpu.dcache.overall_miss_rate::total     0.002535                       # miss rate for overall accesses
system.cpu.dcache.demand_avg_miss_latency::.cpu.data 58545.738046                       # average overall miss latency
system.cpu.dcache.demand_avg_miss_latency::total 58545.738046                       # average overall miss latency
system.cpu.dcache.overall_avg_miss_latency::.cpu.data 58545.738046                       # average overall miss latency
system.cpu.dcache.overall_avg_miss_latency::total 58545.738046                       # average overall miss latency
system.cpu.dcache.blocked_cycles::no_mshrs            0                       # number of cycles access was blocked
system.cpu.dcache.blocked_cycles::no_targets            0                       # number of cycles access was blocked
system.cpu.dcache.blocked::no_mshrs                 0                       # number of cycles access was blocked
system.cpu.dcache.blocked::no_targets               0                       # number of cycles access was blocked
system.cpu.dcache.avg_blocked_cycles::no_mshrs          nan                       # average number of cycles each access was blocked
system.cpu.dcache.avg_blocked_cycles::no_targets          nan                       # average number of cycles each access was blocked
system.cpu.dcache.writebacks::.writebacks            2                       # number of writebacks
system.cpu.dcache.writebacks::total                 2                       # number of writebacks
system.cpu.dcache.demand_mshr_misses::.cpu.data          481                       # number of demand (read+write) MSHR misses
system.cpu.dcache.demand_mshr_misses::total          481                       # number of demand (read+write) MSHR misses
system.cpu.dcache.overall_mshr_misses::.cpu.data          481                       # number of overall MSHR misses
system.cpu.dcache.overall_mshr_misses::total          481                       # number of overall MSHR misses
system.cpu.dcache.demand_mshr_miss_latency::.cpu.data     27679500                       # number of demand (read+write) MSHR miss cycles
system.cpu.dcache.demand_mshr_miss_latency::total     27679500                       # number of demand (read+write) MSHR miss cycles
system.cpu.dcache.overall_mshr_miss_latency::.cpu.data     27679500                       # number of overall MSHR miss cycles
system.cpu.dcache.overall_mshr_miss_latency::total     27679500                       # number of overall MSHR miss cycles
system.cpu.dcache.demand_mshr_miss_rate::.cpu.data     0.002535                       # mshr miss rate for demand accesses
system.cpu.dcache.demand_mshr_miss_rate::total     0.002535                       # mshr miss rate for demand accesses
system.cpu.dcache.overall_mshr_miss_rate::.cpu.data     0.002535                       # mshr miss rate for overall accesses
system.cpu.dcache.overall_mshr_miss_rate::total     0.002535                       # mshr miss rate for overall accesses
system.cpu.dcache.demand_avg_mshr_miss_latency::.cpu.data 57545.738046                       # average overall mshr miss latency
system.cpu.dcache.demand_avg_mshr_miss_latency::total 57545.738046                       # average overall mshr miss latency
system.cpu.dcache.overall_avg_mshr_miss_latency::.cpu.data 57545.738046                       # average overall mshr miss latency
system.cpu.dcache.overall_avg_mshr_miss_latency::total 57545.738046                       # average overall mshr miss latency
system.cpu.dcache.replacements                     28                       # number of replacements
system.cpu.dcache.ReadReq_hits::.cpu.data       124512                       # number of ReadReq hits
system.cpu.dcache.ReadReq_hits::total          124512                       # number of ReadReq hits
system.cpu.dcache.ReadReq_misses::.cpu.data          329                       # number of ReadReq misses
system.cpu.dcache.ReadReq_misses::total           329                       # number of ReadReq misses
system.cpu.dcache.ReadReq_miss_latency::.cpu.data     18944000                       # number of ReadReq miss cycles
system.cpu.dcache.ReadReq_miss_latency::total     18944000                       # number of ReadReq miss cycles
system.cpu.dcache.ReadReq_accesses::.cpu.data       124841                       # number of ReadReq accesses(hits+misses)
system.cpu.dcache.ReadReq_accesses::total       124841                       # number of ReadReq accesses(hits+misses)
system.cpu.dcache.ReadReq_miss_rate::.cpu.data     0.002635                       # miss rate for ReadReq accesses
system.cpu.dcache.ReadReq_miss_rate::total     0.002635                       # miss rate for ReadReq accesses
system.cpu.dcache.ReadReq_avg_miss_latency::.cpu.data 57580.547112                       # average ReadReq miss latency
system.cpu.dcache.ReadReq_avg_miss_latency::total 57580.547112                       # average ReadReq miss latency
system.cpu.dcache.ReadReq_mshr_misses::.cpu.data          329                       # number of ReadReq MSHR misses
system.cpu.dcache.ReadReq_mshr_misses::total          329                       # number of ReadReq MSHR misses
system.cpu.dcache.ReadReq_mshr_miss_latency::.cpu.data     18615000                       # number of ReadReq MSHR miss cycles
system.cpu.dcache.ReadReq_mshr_miss_latency::total     18615000                       # number of ReadReq MSHR miss cycles
system.cpu.dcache.ReadReq_mshr_miss_rate::.cpu.data     0.002635                       # mshr miss rate for ReadReq accesses
system.cpu.dcache.ReadReq_mshr_miss_rate::total     0.002635                       # mshr miss rate for ReadReq accesses
system.cpu.dcache.ReadReq_avg_mshr_miss_latency::.cpu.data 56580.547112                       # average ReadReq mshr miss latency
system.cpu.dcache.ReadReq_avg_mshr_miss_latency::total 56580.547112                       # average ReadReq mshr miss latency
system.cpu.dcache.WriteReq_hits::.cpu.data        64726                       # number of WriteReq hits
system.cpu.dcache.WriteReq_hits::total          64726                       # number of WriteReq hits
system.cpu.dcache.WriteReq_misses::.cpu.data          152                       # number of WriteReq misses
system.cpu.dcache.WriteReq_misses::total          152                       # number of WriteReq misses
system.cpu.dcache.WriteReq_miss_latency::.cpu.data      9216500                       # number of WriteReq miss cycles
system.cpu.dcache.WriteReq_miss_latency::total      9216500                       # number of WriteReq miss cycles
system.cpu.dcache.WriteReq_accesses::.cpu.data        64878                       # number of WriteReq accesses(hits+misses)
system.cpu.dcache.WriteReq_accesses::total        64878                       # number of WriteReq accesses(hits+misses)
system.cpu.dcache.WriteReq_miss_rate::.cpu.data     0.002343                       # miss rate for WriteReq accesses
system.cpu.dcache.WriteReq_miss_rate::total     0.002343                       # miss rate for WriteReq accesses
system.cpu.dcache.WriteReq_avg_miss_latency::.cpu.data 60634.868421                       # average WriteReq miss latency
system.cpu.dcache.WriteReq_avg_miss_latency::total 60634.868421                       # average WriteReq miss latency
system.cpu.dcache.WriteReq_mshr_misses::.cpu.data          152                       # number of WriteReq MSHR misses
system.cpu.dcache.WriteReq_mshr_misses::total          152                       # number of WriteReq MSHR misses
system.cpu.dcache.WriteReq_mshr_miss_latency::.cpu.data      9064500                       # number of WriteReq MSHR miss cycles
system.cpu.dcache.WriteReq_mshr_miss_latency::total      9064500                       # number of WriteReq MSHR miss cycles
system.cpu.dcache.WriteReq_mshr_miss_rate::.cpu.data     0.002343                       # mshr miss rate for WriteReq accesses
system.cpu.dcache.WriteReq_mshr_miss_rate::total     0.002343                       # mshr miss rate for WriteReq accesses
system.cpu.dcache.WriteReq_avg_mshr_miss_latency::.cpu.data 59634.868421                       # average WriteReq mshr miss latency
system.cpu.dcache.WriteReq_avg_mshr_miss_latency::total 59634.868421                       # average WriteReq mshr miss latency
system.cpu.dcache.tags.pwrStateResidencyTicks::UNDEFINED   1150929000                       # Cumulative time (in ticks) in various power states
system.cpu.dcache.tags.tagsinuse           344.273803                       # Cycle average of tags in use
system.cpu.dcache.tags.total_refs              189719                       # Total number of references to valid blocks.
system.cpu.dcache.tags.sampled_refs               481                       # Sample count of references to valid blocks.
system.cpu.dcache.tags.avg_refs            394.426195                       # Average number of references to valid blocks.
system.cpu.dcache.tags.warmup_cycle            148000                       # Cycle when the warmup percentage was hit.
system.cpu.dcache.tags.occ_blocks::.cpu.data   344.273803                       # Average occupied blocks per requestor
system.cpu.dcache.tags.occ_percent::.cpu.data     0.336205                       # Average percentage of cache occupancy
system.cpu.dcache.tags.occ_percent::total     0.336205                       # Average percentage of cache occupancy
system.cpu.dcache.tags.occ_task_id_blocks::1024          453                       # Occupied blocks per task id
system.cpu.dcache.tags.age_task_id_blocks_1024::0           12                       # Occupied blocks per task id
system.cpu.dcache.tags.age_task_id_blocks_1024::1           10                       # Occupied blocks per task id
system.cpu.dcache.tags.age_task_id_blocks_1024::2          206                       # Occupied blocks per task id
system.cpu.dcache.tags.age_task_id_blocks_1024::3          225                       # Occupied blocks per task id
system.cpu.dcache.tags.occ_task_id_percent::1024     0.442383                       # Percentage of cache occupancy per task id
system.cpu.dcache.tags.tag_accesses            379919                       # Number of tag accesses
system.cpu.dcache.tags.data_accesses           379919                       # Number of data accesses

---------- End Simulation Statistics   ----------
